<?xml version="1.0" encoding="UTF-8"?>

<!-- generated on Wed Apr  2 19:56:51 2014 by SUMO netconvert Version 0.17.1
<?xml version="1.0" encoding="UTF-8"?>

<configuration xmlns:xsi="http://www.w3.org/2001/XMLSchema-instance" xsi:noNamespaceSchemaLocation="http://sumo.sf.net/xsd/netconvertConfiguration.xsd">

    <input>
        <node-files value="test.nod.xml"/>
        <edge-files value="test.edg.xml"/>
    </input>

    <output>
        <output-file value="test.net.xml"/>
    </output>

</configuration>
-->

<net version="0.13" xmlns:xsi="http://www.w3.org/2001/XMLSchema-instance" xsi:noNamespaceSchemaLocation="http://sumo.sf.net/xsd/net_file.xsd">

    <location netOffset="1.00,0.00" convBoundary="0.00,0.00,21.00,0.00" origBoundary="-1.00,0.00,20.00,0.00" projParameter="!"/>

    <edge id=":0_0" function="internal">
        <lane id=":0_0_0" index="0" speed="13.90" length="0.10" shape="1.00,2.05 1.00,2.05"/>
    </edge>
    <edge id=":1_0" function="internal">
        <lane id=":1_0_0" index="0" speed="13.90" length="0.10" shape="5.00,2.05 5.00,2.05"/>
    </edge>
    <edge id=":2_0" function="internal">
        <lane id=":2_0_0" index="0" speed="13.90" length="0.10" shape="9.00,2.05 9.00,2.05"/>
    </edge>
    <edge id=":3_0" function="internal">
        <lane id=":3_0_0" index="0" speed="13.90" length="0.10" shape="13.00,2.05 13.00,2.05"/>
    </edge>
    <edge id=":4_0" function="internal">
        <lane id=":4_0_0" index="0" speed="13.90" length="0.10" shape="17.00,2.05 17.00,2.05"/>
    </edge>

    <edge id="0to-1" from="0" to="-1" priority="-1">
        <lane id="0to-1_0" index="0" speed="13.90" length="1.00" width="4.00" shape="1.00,2.05 0.00,2.05"/>
    </edge>
    <edge id="1to0" from="1" to="0" priority="-1">
        <lane id="1to0_0" index="0" speed="13.90" length="4.00" width="4.00" shape="5.00,2.05 1.00,2.05"/>
    </edge>
    <edge id="2to1" from="2" to="1" priority="-1">
        <lane id="2to1_0" index="0" speed="13.90" length="4.00" width="4.00" shape="9.00,2.05 5.00,2.05"/>
    </edge>
    <edge id="3to2" from="3" to="2" priority="-1">
        <lane id="3to2_0" index="0" speed="13.90" length="4.00" width="4.00" shape="13.00,2.05 9.00,2.05"/>
    </edge>
    <edge id="4to3" from="4" to="3" priority="-1">
        <lane id="4to3_0" index="0" speed="13.90" length="4.00" width="4.00" shape="17.00,2.05 13.00,2.05"/>
    </edge>
    <edge id="5to4" from="5" to="4" priority="-1">
        <lane id="5to4_0" index="0" speed="13.90" length="4.00" width="4.00" shape="21.00,2.05 17.00,2.05"/>
    </edge>

    <tlLogic id="0" type="static" programID="0" offset="0">
        <phase duration="31" state="G"/>
        <phase duration="4" state="y"/>
    </tlLogic>

    <junction id="-1" type="unregulated" x="0.00" y="0.00" incLanes="0to-1_0" intLanes="" shape="0.00,3.65 0.00,0.45"/>
    <junction id="0" type="traffic_light" x="1.00" y="0.00" incLanes="1to0_0" intLanes=":0_0_0" shape="1.00,3.65 1.00,0.45 1.00,3.65">
        <request index="0" response="0" foes="0" cont="0"/>
    </junction>
    <junction id="1" type="priority" x="5.00" y="0.00" incLanes="2to1_0" intLanes=":1_0_0" shape="5.00,3.65 5.00,0.45 5.00,3.65">
        <request index="0" response="0" foes="0" cont="0"/>
    </junction>
    <junction id="2" type="priority" x="9.00" y="0.00" incLanes="3to2_0" intLanes=":2_0_0" shape="9.00,3.65 9.00,0.45 9.00,3.65">
        <request index="0" response="0" foes="0" cont="0"/>
    </junction>
    <junction id="3" type="priority" x="13.00" y="0.00" incLanes="4to3_0" intLanes=":3_0_0" shape="13.00,3.65 13.00,0.45 13.00,3.65">
        <request index="0" response="0" foes="0" cont="0"/>
    </junction>
    <junction id="4" type="priority" x="17.00" y="0.00" incLanes="5to4_0" intLanes=":4_0_0" shape="17.00,3.65 17.00,0.45 17.00,3.65">
        <request index="0" response="0" foes="0" cont="0"/>
    </junction>
    <junction id="5" type="unregulated" x="21.00" y="0.00" incLanes="" intLanes="" shape="21.00,0.45 21.00,3.65"/>

    <connection from="1to0" to="0to-1" fromLane="0" toLane="0" via=":0_0_0" tl="0" linkIndex="0" dir="s" state="o"/>
    <connection from="2to1" to="1to0" fromLane="0" toLane="0" via=":1_0_0" dir="s" state="M"/>
    <connection from="3to2" to="2to1" fromLane="0" toLane="0" via=":2_0_0" dir="s" state="M"/>
    <connection from="4to3" to="3to2" fromLane="0" toLane="0" via=":3_0_0" dir="s" state="M"/>
    <connection from="5to4" to="4to3" fromLane="0" toLane="0" via=":4_0_0" dir="s" state="M"/>

    <connection from=":0_0" to="0to-1" fromLane="0" toLane="0" dir="s" state="M"/>
    <connection from=":1_0" to="1to0" fromLane="0" toLane="0" dir="s" state="M"/>
    <connection from=":2_0" to="2to1" fromLane="0" toLane="0" dir="s" state="M"/>
    <connection from=":3_0" to="3to2" fromLane="0" toLane="0" dir="s" state="M"/>
    <connection from=":4_0" to="4to3" fromLane="0" toLane="0" dir="s" state="M"/>

</net>
