<nodes>
    <node id="1" x="0" y="0.0" />
    <node id="2" x="4" y="0.0" />
    <node id="3" x="8" y="0.0" />
    <node id="4" x="12" y="0.0" />
    <node id="5" x="0" y="-3.0" />
    <node id="6" x="4" y="-3.0" />
    <node id="7" x="8" y="-3.0" />
    <node id="8" x="12" y="-3.0" />
</nodes>