<configuration>
    <input>
        <net-file value="test.net.xml"/>
        <route-files value="test.rou.xml"/>
        <gui-settings-file value="test.settings.xml"/>
    </input>
    <time>
        <begin value="0"/>
    </time>
</configuration>