<edges>
    <edge from="4" id="4to3" to="3" />
    <edge from="3" id="3to2" to="2" />
    <edge from="2" id="2to1" to="1" />
    <edge from="8" id="8to7" to="7" />
    <edge from="7" id="7to6" to="6" />
    <edge from="6" id="6to5" to="5" />
   <!--  <edge from="4" id="4to7" to="7" />
    <edge from="3" id="3to6" to="6" />
    <edge from="2" id="2to5" to="5" />
    <edge from="8" id="8to3" to="3" />
    <edge from="7" id="7to2" to="2" />
    <edge from="6" id="6to1" to="1" /> -->
</edges>