<edges>
    <edge from="5" id="5to4" to="4" width="4.0"/>
    <edge from="4" id="4to3" to="3" width="4.0"/>
    <edge from="3" id="3to2" to="2" width="4.0"/>
    <edge from="2" id="2to1" to="1" width="4.0"/>
    <edge from="1" id="1to0" to="0" width="4.0"/>
    <edge from="0" id="0to-1" to="-1" width="4.0"/>
   
</edges>