<nodes>
	<node id="-1" x="-1" y="0.0"/>
	<node id="0" x="0" y="0.0" type="traffic_light" tlType="static"/>
    <node id="1" x="4" y="0.0" />
    <node id="2" x="8" y="0.0" />
    <node id="3" x="12" y="0.0" />
    <node id="4" x="16" y="0.0" />
    <node id="5" x="20" y="0.0"/>
</nodes>