<additional>
   <tlLogic id="0" programID="my_program" offset="0" type="static">
      <phase duration="6" state="GGggrrrrGGggrrrr"/>
      <phase duration="2"  state="yyggrrrryyggrrrr"/>
      <phase duration="6"  state="rrGGrrrrrrGGrrrr"/>
      <phase duration="5"  state="rryyrrrrrryyrrrr"/>
      <phase duration="6" state="rrrrGGggrrrrGGgg"/>
      <phase duration="5"  state="rrrryyggrrrryygg"/>
      <phase duration="6"  state="rrrrrrGGrrrrrrGG"/>
      <phase duration="5"  state="rrrrrryyrrrrrryy"/>
   </tlLogic>
</additional>